      98
 i =    47000, time =    42000.000, E =      -576.0844944982
  O        -5.1711205580        7.6959325850        0.4233841729
  O        -3.1972365683        8.2117718711        7.6429762731
  O        -4.2005823840        2.3557813897        7.1314250983
  O        -5.4857206203        0.1047497651       -2.5687808253
  O         4.3680166987        3.2880950910       -0.4893728421
  O         4.0215379276        2.1798537724        3.1752705088
  O        -5.2607721151        0.4823856651        1.1066773882
  O         0.3254538460        2.8272513790        1.2550759009
  O         2.0809171787       15.2478795332        9.4689645242
  O         4.5156284568        6.2331259718        6.1583494371
  O        -3.1947353383        5.1099246520       -4.4443058479
  O        -2.6681106666        9.2279390024        4.1001311910
  O         2.1517944415        4.8746380175       -4.5629999729
  O        -3.8646887462        5.2707380053        0.7473783213
  O        -3.3757013668        3.8448858667        3.1185656022
  O        -1.3715423347       11.7867478559        3.5077058380
  O         3.0649087074        0.5644356646       -4.8741801296
  O        -2.0734764798        6.9649443290        2.4011084317
  O        -0.4144950682        5.9533043985       -4.0364374575
  O        -2.4097832937       10.8203369683        0.0057267053
  O        -1.1787360142       -0.4029564956        6.3944248582
  O         1.2681712097        8.5488827114        6.3379176285
  O        -1.4294926032        3.8589345467       -0.4078316016
  O         4.7315132491       -1.8337592387        3.7678281780
  O        -6.7899656712        7.2590368139       -1.6381509204
  O        -8.7698772958        3.1307559853        7.2539306873
  O        -1.0078768016        6.5128379702        9.0926844171
  O        -1.1117403326        2.3057175664        6.2325353478
  O         1.9409211469        0.9191761087       -0.1595133406
  O         2.2911475833        4.5322772039        2.6367780785
  O        -0.1781527928        9.3042319618       -0.1079291107
  H        -5.6997094999        7.5450167900        1.2570947152
  H        -5.8731613363        7.4274389547       -0.2879445699
  H        -3.0593759093        8.1541283227        8.6467853181
  H        -3.9718385984        8.7865114658        7.5110920220
  H        -4.4547980258        3.2720387966        6.8869816729
  H        -3.3413041539        2.2342755202        6.7252872220
  H        -5.8684633461       -0.4591588281       -1.8722595664
  H        -5.1577700731        0.9394515403       -2.2586037791
  H         4.2037319254        2.5969682685        0.1359188508
  H         5.1639744583        3.7823243507       -0.0857956109
  H         3.3838022210        2.8902230020        2.9844557173
  H         3.7395559702        1.8232340288        4.0599046317
  H        -5.4795686962        1.0598738649        1.8963876737
  H        -5.0451609524       -0.4272256187        1.4748790792
  H         0.9323252214        3.2147952067        1.9258478621
  H         0.8280176390        2.1357826880        0.7825774029
  H         1.4470909891       14.6642391440        9.1453266474
  H         2.8190553598       14.6967245738        9.6916837666
  H         5.3895575514        5.7426129831        6.1586212940
  H         4.7318656090        7.0309201541        5.6643292460
  H        -2.3270623440        4.9547170595       -4.1592437304
  H        -3.3169505532        4.7050658987       -5.3466311309
  H        -2.5267284307        8.6088539341        3.3595475931
  H        -2.5912800197       10.0704839671        3.6677304187
  H         2.1014085669        4.0014495406       -4.1081489581
  H         2.9561380995        5.3104544413       -4.1773799185
  H        -4.1922702280        6.1939848625        0.5511911468
  H        -2.9775400102        5.2153901455        0.3431423534
  H        -3.7120098449        4.2184666280        2.2543642838
  H        -4.1842843951        3.2930467988        3.3207810388
  H        -1.9932480060       12.5342384379        3.1094644954
  H        -0.6150772873       11.8655967120        2.9691952416
  H         2.1937098926        0.2040438432       -4.6148432465
  H         3.6353530151        0.3119725281       -4.1043059994
  H        -1.3670378609        6.8240668587        3.0578980445
  H        -2.6535246805        6.2112960578        2.3906553318
  H         0.4228338875        5.4590705658       -4.1980564705
  H        -0.0281010448        6.8935856987       -3.9644446563
  H        -3.3427751740       10.7199945937        0.3807385673
  H        -2.4542502452       11.7277140830       -0.3634458421
  H        -1.5742873461       -0.5091019764        5.5245017394
  H        -1.8084309586       -0.9236489139        6.9932148965
  H         1.8310253259        8.2471137715        7.0507262541
  H         0.4101232504        8.9835885428        6.6771390067
  H        -0.9261178644        4.0700826708       -1.2110475219
  H        -0.7637055479        3.6600096701        0.2888164046
  H         4.0483578979       -1.2993762925        4.1975619940
  H         5.5655806862       -1.4535743202        4.1531998686
  H        -6.2320607017        6.7466859477       -2.2341810675
  H        -7.3829739852        6.5230380543       -1.3057404137
  H        -8.2682512365        2.4019753336        7.6527109299
  H        -9.6254161064        2.6721414388        6.9762660014
  H        -0.9074951034        6.2357717080        8.1341228780
  H        -1.0739035385        5.6681783022        9.5693791844
  H        -1.1838616009        1.3693254883        6.6176595168
  H        -1.0593534951        2.3823924653        5.2603306256
  H         2.8197140123        0.8638832562        0.2222572554
  H         1.3108416037        0.1987535284        0.0122437631
  H         2.3080881593        4.7985818004        3.5924067265
  H         1.9817940317        5.3157105046        2.1738811140
  H        -0.3657171292        8.3357212934       -0.3015029544
  H        -1.0374010879        9.7571985057       -0.2115755700
  C         1.1005020857        8.1963885889        2.8663296618
  O         0.2356383940        9.2189203868        2.6764389666
  O         1.5212482987        7.4548766067        2.0037012082
  H         1.2484580727        8.1213170194        3.9114955311
  H         0.0423837451        9.3398534940        1.6693119750
